6
	Energy:       0.1556657
C          1.35053        1.02396       -0.57561
C          2.53232        0.66733       -0.07975
H          0.43445        0.75975       -0.05634
H          1.29613        1.58243       -1.50442
H          3.44577        0.93350       -0.60208
H          2.59151        0.10871        0.84891
