14
	Energy:       1.7729886
C          1.04054        0.16815       -0.05977
C          2.02712       -0.83222        0.53539
C          3.41044       -0.69520       -0.11017
C          4.39702       -1.69557        0.48499
H          1.39465        1.20734        0.10999
H          0.04906        0.04676        0.42521
H          0.92620       -0.00494       -1.15114
H          2.10569       -0.65098        1.62966
H          1.63816       -1.86088        0.37102
H          3.33187       -0.87643       -1.20444
H          3.79940        0.33346        0.05421
H          4.04291       -2.73476        0.31523
H          4.51136       -1.52248        1.57636
H          5.38850       -1.57418        0.00001
