14
	Energy:       3.1709973
C          1.35732        1.01576       -0.56248
C          2.53842        0.65326       -0.05675
C          2.62783       -0.10716        1.20662
C          3.81510       -0.46880        1.71039
C          3.90454       -1.22922        2.97376
C          5.08567       -1.59169        3.47946
H          0.42853        0.76220       -0.05992
H          1.31393        1.57412       -1.49203
H          3.44495        0.92645       -0.59022
H          1.71356       -0.37486        1.73157
H          4.72937       -0.20109        1.18543
H          2.99803       -1.50242        3.50725
H          6.01443       -1.33810        2.97687
H          5.12910       -2.15005        4.40901
