29
	Energy:      -7.1254733
C          3.50049       -3.69395        0.49477
C          3.90737       -5.04643        1.08228
C          5.15976       -4.92294        1.95200
C          5.56758       -6.27748        2.53419
C          6.82134       -6.15721        3.40232
C          7.23014       -7.51393        3.97879
C          8.48515       -7.39655        4.84544
C          8.89478       -8.75489        5.41741
C         10.14949       -8.63917        6.28262
H          3.31246       -2.98179        1.30742
H          4.32583       -3.29054       -0.10444
H          4.09393       -5.75848        0.26915
H          3.08221       -5.44952        1.68199
H          4.97254       -4.21368        2.76738
H          5.98429       -4.51727        1.35321
H          5.75287       -6.98668        1.71826
H          4.74336       -6.68268        3.13375
H          6.63539       -5.45102        4.22065
H          7.64492       -5.74928        2.80377
H          7.41435       -8.22009        3.15998
H          6.40688       -7.92146        4.57808
H          8.30043       -6.69278        5.66616
H          9.30793       -6.98688        4.24698
H          9.07851       -9.45882        4.59653
H          8.07223       -9.16467        6.01620
H          9.96958       -7.94085        7.10826
H         10.97593       -8.23282        5.68802
H          2.62432       -3.83148       -0.10382
H         10.39101       -9.61318        6.65394
