17
alpha=83.68 b3lypvdz=-384.666210644463 
     C      0.78070000      1.29704200     -0.13875900
     C      2.10786900      0.95436600     -0.41631700
     C      2.54677600     -0.35782900     -0.22235100
     C      1.64752700     -1.32398500      0.24192700
     C      0.32253600     -0.97848600      0.51738400
     C     -0.12659300      0.33987300      0.33759900
     C     -1.54602400      0.73117300      0.67131300
     C     -2.65258800      0.07384900     -0.13672700
     O     -2.51253300     -0.81348000     -0.94204100
     H      0.44440400      2.32574000     -0.29688600
     H      2.79880800      1.71742800     -0.78240300
     H      3.58287900     -0.63004900     -0.43752100
     H      1.98410100     -2.35214400      0.39668800
     H     -0.37209100     -1.74044700      0.87722100
     H     -1.78692200      0.50378900      1.73045000
     H     -1.68767800      1.82367000      0.57933300
     H     -3.67070800      0.49039900      0.09717700
