%nproc=9
# opt b3lyp/sto-3g

c06h14_c01

0 1
 C      0.01339000     -1.58883000     -2.22258000
 C      0.55648000     -3.00576000     -2.12721000
 C      1.49024000     -3.16847000     -0.92701000
 C      2.03646000     -4.59532000     -0.83984000
 C      2.89257000     -4.84208000      0.40420000
 C      4.18279000     -4.03712000      0.42338000
 H     -0.55565000     -1.32560000     -1.32524000
 H     -0.65209000     -1.49535000     -3.08647000
 H      0.82566000     -0.86436000     -2.33956000
 H     -0.28220000     -3.70686000     -2.04486000
 H      1.09302000     -3.24839000     -3.05186000
 H      0.94853000     -2.92490000     -0.00508000
 H      2.31680000     -2.45468000     -1.01686000
 H      2.62101000     -4.82353000     -1.73946000
 H      1.19616000     -5.30047000     -0.82209000
 H      3.14704000     -5.90799000      0.44415000
 H      2.31144000     -4.62137000      1.30710000
 H      4.79411000     -4.32859000      1.28355000
 H      4.76938000     -4.21267000     -0.48387000
 H      3.98550000     -2.96444000      0.50675000


