%nproc=6
# opt(GDIIS) b3lyp/sto-3g

c07h16_c01

0 1
 C      3.03510000      3.11610000      0.58710000
 C      3.56070000      4.54880000      0.68070000
 C      4.52520000      4.92350000     -0.45650000
 C      5.82820000      4.10880000     -0.44280000
 C      6.77560000      4.57770000     -1.55830000
 C      8.12840000      3.84700000     -1.55550000
 C      8.01390000      2.35110000     -1.85020000
 H      3.85530000      2.37760000      0.69220000
 H      2.51750000      2.95870000     -0.38290000
 H      2.31030000      2.93650000      1.40890000
 H      4.06050000      4.69730000      1.66250000
 H      2.68780000      5.23550000      0.63040000
 H      4.78170000      5.99900000     -0.33650000
 H      4.01040000      4.79730000     -1.43440000
 H      6.33010000      4.24100000      0.54080000
 H      5.59160000      3.03690000     -0.58970000
 H      6.98070000      5.66120000     -1.41310000
 H      6.28730000      4.44740000     -2.54900000
 H      8.63400000      3.99470000     -0.57650000
 H      8.76550000      4.30160000     -2.34500000
 H      9.02980000      1.90410000     -1.88070000
 H      7.52560000      2.18910000     -2.83460000
 H      7.43740000      1.82720000     -1.06130000


