%nproc=6
# opt(tight) b3lyp/sto-3g

c08h10

0 1
 C      1.36227000      1.01424000     -0.56028000
 C      2.54203000      0.65042000     -0.05237000
 C      2.62823000     -0.10997000      1.21123000
 C      3.81422000     -0.47290000      1.71725000
 C      3.90108000     -1.23356000      2.98125000
 C      5.08707000     -1.59642000      3.48732000
 C      5.17327000     -2.35679000      4.75093000
 C      6.35304000     -2.72043000      5.25895000
 H      0.43228000      0.76179000     -0.05939000
 H      1.32122000      1.57256000     -1.48996000
 H      3.44984000      0.92252000     -0.58420000
 H      1.71261000     -0.37652000      1.73439000
 H      4.72932000     -0.20592000      1.19342000
 H      2.98598000     -1.50058000      3.50506000
 H      6.00269000     -1.32982000      2.96419000
 H      4.26545000     -2.62899000      5.28270000
 H      6.39409000     -3.27873000      6.18864000
 H      7.28304000     -2.46786000      4.75813000


