%nproc=6
# opt(tight) b3lyp/sto-3g

c12h26

0 1
 C      0.18321000     -1.24906000     -2.43151000
 C      0.58812000     -2.59641000     -1.84084000
 C      1.84174000     -2.46403000     -0.96853000
 C      2.24566000     -3.82019000     -0.37854000
 C      3.49999000     -3.68970000      0.49356000
 C      3.90441000     -5.04731000      1.07988000
 C      5.15982000     -4.91963000      1.95073000
 C      5.56461000     -6.27950000      2.53166000
 C      6.82142000     -6.15584000      3.40101000
 C      7.22625000     -7.51807000      3.97649000
 C      8.48380000     -7.39722000      4.84455000
 C      8.88990000     -8.75255000      5.41607000
 H     -0.72545000     -1.37493000     -3.05716000
 H      0.99973000     -0.84529000     -3.06741000
 H     -0.04087000     -0.52362000     -1.62059000
 H      0.78482000     -3.30782000     -2.67247000
 H     -0.25372000     -2.98729000     -1.22854000
 H      1.63913000     -1.74899000     -0.14069000
 H      2.67837000     -2.06882000     -1.58623000
 H      2.44783000     -4.53457000     -1.20708000
 H      1.40905000     -4.21582000      0.23889000
 H      3.29811000     -2.97659000      1.32320000
 H      4.33630000     -3.29322000     -0.12372000
 H      4.10558000     -5.75952000      0.24924000
 H      3.06844000     -5.44448000      1.69717000
 H      4.95915000     -4.20919000      2.78295000
 H      5.99536000     -4.52127000      1.33362000
 H      5.76417000     -6.98878000      1.69815000
 H      4.72934000     -6.67846000      3.14875000
 H      6.62236000     -5.44829000      4.23611000
 H      7.65630000     -5.75568000      2.78416000
 H      7.42468000     -8.22478000      3.14047000
 H      6.39166000     -7.91880000      4.59340000
 H      8.29156000     -6.69584000      5.68566000
 H      9.32330000     -6.99985000      4.23322000
 H      9.10947000     -9.46764000      4.59473000
 H      8.07575000     -9.16386000      6.05018000
 H      9.80157000     -8.63600000      6.03909000


