%nproc=6
# opt(tight) b3lyp/sto-3g

c14h16

0 1
 C      1.21789000     -0.25949000     -0.29603000
 C      1.77494000      0.56340000     -1.18757000
 C      3.24083000      0.74119000     -1.24596000
 C      3.79297000      1.56859000     -2.14318000
 C      5.25852000      1.75057000     -2.20643000
 C      5.80366000      2.57975000     -3.10641000
 C      7.26787000      2.76849000     -3.17757000
 C      7.80328000      3.60009000     -4.08133000
 C      9.26579000      3.79675000     -4.16179000
 C      9.79139000      4.63073000     -5.06928000
 C     11.25238000      4.83423000     -5.15776000
 C     11.77083000      5.66985000     -6.06787000
 C     13.23064000      5.87707000     -6.16077000
 C     13.74800000      6.70964000     -7.06746000
 H      0.13942000     -0.37738000     -0.26795000
 H      1.82876000     -0.81765000      0.40732000
 H      1.13522000      1.10738000     -1.87750000
 H      3.87436000      0.19326000     -0.55210000
 H      3.15734000      2.11549000     -2.83605000
 H      5.89686000      1.20517000     -1.51500000
 H      5.16261000      3.12376000     -3.79650000
 H      7.91281000      2.22659000     -2.48951000
 H      7.15519000      4.14032000     -4.76779000
 H      9.91778000      3.25866000     -3.47739000
 H      9.13669000      5.16739000     -5.75229000
 H     11.90998000      4.29920000     -4.47633000
 H     11.11206000      6.20432000     -6.74877000
 H     13.89776000      5.34818000     -5.48544000
 H     13.10793000      7.25293000     -7.75665000
 H     14.82248000      6.85091000     -7.12290000


