%nproc=6
# opt(tight) b3lyp/sto-3g

c14h30

0 1
 C      0.18637000     -1.25599000     -2.42898000
 C      0.59298000     -2.59639000     -1.83776000
 C      1.84298000     -2.46897000     -0.96724000
 C      2.24911000     -3.82001000     -0.37605000
 C      3.50049000     -3.69395000      0.49477000
 C      3.90737000     -5.04643000      1.08228000
 C      5.15976000     -4.92294000      1.95200000
 C      5.56758000     -6.27748000      2.53419000
 C      6.82134000     -6.15721000      3.40232000
 C      7.23014000     -7.51393000      3.97879000
 C      8.48515000     -7.39655000      4.84544000
 C      8.89478000     -8.75489000      5.41741000
 C     10.14949000     -8.63917000      6.28262000
 C     10.56051000     -9.98815000      6.85101000
 H     -0.70935000     -1.37061000     -3.04746000
 H      0.98332000     -0.84665000     -3.05798000
 H     -0.03611000     -0.53043000     -1.64007000
 H      0.77675000     -3.30728000     -2.65174000
 H     -0.23716000     -2.99306000     -1.24173000
 H      1.65489000     -1.75455000     -0.15654000
 H      2.66879000     -2.06708000     -1.56691000
 H      2.43662000     -4.53409000     -1.18718000
 H      1.42328000     -4.22159000      0.22376000
 H      3.31246000     -2.98179000      1.30742000
 H      4.32583000     -3.29054000     -0.10444000
 H      4.09393000     -5.75848000      0.26915000
 H      3.08221000     -5.44952000      1.68199000
 H      4.97254000     -4.21368000      2.76738000
 H      5.98429000     -4.51727000      1.35321000
 H      5.75287000     -6.98668000      1.71826000
 H      4.74336000     -6.68268000      3.13375000
 H      6.63539000     -5.45102000      4.22065000
 H      7.64492000     -5.74928000      2.80377000
 H      7.41435000     -8.22009000      3.15998000
 H      6.40688000     -7.92146000      4.57808000
 H      8.30043000     -6.69278000      5.66616000
 H      9.30793000     -6.98688000      4.24698000
 H      9.07851000     -9.45882000      4.59653000
 H      8.07223000     -9.16467000      6.01620000
 H      9.96958000     -7.94085000      7.10826000
 H     10.97593000     -8.23282000      5.68802000
 H      9.76733000    -10.40796000      7.47787000
 H     11.45950000     -9.88230000      7.46626000
 H     10.77930000    -10.70127000      6.04978000


