%nproc=6
# opt(tight) b3lyp/sto-3g

c16h34

0 1
 C      0.13036000     -1.20598000     -2.47703000
 C      0.53300000     -2.55294000     -1.88384000
 C      1.78983000     -2.42192000     -1.01595000
 C      2.19152000     -3.77744000     -0.42287000
 C      3.44877000     -3.64774000      0.44522000
 C      3.85081000     -5.00436000      1.03546000
 C      5.10855000     -4.87713000      1.90314000
 C      5.51042000     -6.23607000      2.48808000
 C      6.76903000     -6.11374000      3.35513000
 C      7.17004000     -7.47623000      3.93249000
 C      8.42976000     -7.36058000      4.79873000
 C      8.82965000     -8.72711000      5.36758000
 C     10.09039000     -8.61797000      6.23311000
 C     10.48956000     -9.98769000      6.79489000
 C     11.75059000     -9.88200000      7.65986000
 C     12.15103000    -11.24488000      8.21737000
 H     -0.78073000     -1.33071000     -3.09936000
 H      0.94606000     -0.80653000     -3.11669000
 H     -0.08881000     -0.47756000     -1.66744000
 H      0.72477000     -3.26735000     -2.71405000
 H     -0.30809000     -2.93940000     -1.26771000
 H      1.59204000     -1.70370000     -0.18969000
 H      2.62573000     -2.03121000     -1.63750000
 H      2.38907000     -4.49513000     -1.24966000
 H      1.35554000     -4.16856000      0.19830000
 H      3.25129000     -2.93111000      1.27288000
 H      4.28455000     -3.25596000     -0.17574000
 H      4.04794000     -5.72016000      0.20692000
 H      3.01515000     -5.39692000      1.65612000
 H      4.91175000     -4.16316000      2.73325000
 H      5.94399000     -4.48353000      1.28286000
 H      5.70637000     -6.94865000      1.65650000
 H      4.67501000     -6.63059000      3.10784000
 H      6.57363000     -5.40369000      4.18893000
 H      7.60420000     -5.71781000      2.73597000
 H      7.36423000     -8.18449000      3.09681000
 H      6.33482000     -7.87313000      4.55099000
 H      8.23616000     -6.65514000      5.63686000
 H      9.26471000     -6.96207000      4.18095000
 H      9.02208000     -9.43075000      4.52761000
 H      7.99458000     -9.12654000      5.98465000
 H      9.89834000     -7.91672000      7.07512000
 H     10.92523000     -8.21711000      5.61668000
 H     10.68123000    -10.68784000      5.95179000
 H      9.65481000    -10.38946000      7.41091000
 H     11.56492000     -9.18752000      8.50813000
 H     12.59031000     -9.48358000      7.04954000
 H     11.33666000    -11.65776000      8.85017000
 H     13.06526000    -11.13919000      8.83857000
 H     12.36416000    -11.95344000      7.38869000


