%nproc=6
# opt(tight) b3lyp/sto-3g

c18h38

0 1
 C      0.08472000     -1.16539000     -2.51620000
 C      0.48521000     -2.51222000     -1.92134000
 C      1.74413000     -2.38269000     -1.05630000
 C      2.14350000     -3.73806000     -0.46145000
 C      3.40299000     -3.60994000      0.40352000
 C      3.80248000     -4.96639000      0.99570000
 C      5.06281000     -4.84085000      1.85974000
 C      5.46174000     -6.19950000      2.44709000
 C      6.72337000     -6.07902000      3.30989000
 C      7.12052000     -7.44106000      3.89059000
 C      8.38349000     -7.32778000      4.75229000
 C      8.77757000     -8.69389000      5.32574000
 C     10.04149000     -8.58861000      6.18697000
 C     10.43189000     -9.95854000      6.75411000
 C     11.69620000     -9.86012000      7.61558000
 C     12.08359000    -11.23268000      8.17859000
 C     13.34767000    -11.13761000      9.04027000
 C     13.73516000    -12.50296000      9.60084000
 H     -0.82792000     -1.28902000     -3.13646000
 H      0.90013000     -0.76914000     -3.15823000
 H     -0.13101000     -0.43495000     -1.70750000
 H      0.67353000     -3.22867000     -2.75059000
 H     -0.35556000     -2.89544000     -1.30276000
 H      1.54990000     -1.66239000     -0.23101000
 H      2.57974000     -1.99532000     -1.68032000
 H      2.33736000     -4.45793000     -1.28723000
 H      1.30787000     -4.12573000      0.16234000
 H      3.20940000     -2.89102000      1.23013000
 H      4.23845000     -3.22181000     -0.22017000
 H      3.99541000     -5.68465000      0.16832000
 H      2.96724000     -5.35506000      1.61938000
 H      4.87047000     -4.12418000      2.68859000
 H      5.89785000     -4.45150000      1.23626000
 H      5.65277000     -6.91511000      1.61695000
 H      4.62680000     -6.58938000      3.07043000
 H      6.53323000     -5.36552000      4.14196000
 H      7.55818000     -5.68841000      2.68690000
 H      7.30893000     -8.15321000      3.05689000
 H      6.28555000     -7.83207000      4.51320000
 H      8.19610000     -6.61789000      5.58806000
 H      9.21854000     -6.93622000      4.13023000
 H      8.96326000     -9.40240000      4.48833000
 H      7.94207000     -9.08567000      5.94713000
 H      9.85669000     -7.88202000      7.02611000
 H     10.87728000     -8.19657000      5.56619000
 H     10.61542000    -10.66398000      5.91364000
 H      9.59547000    -10.35065000      7.37406000
 H     11.51322000     -9.15595000      8.45717000
 H     12.53295000     -9.46799000      6.99612000
 H     12.26615000    -11.93633000      7.33638000
 H     11.24653000    -11.62500000      8.79756000
 H     13.17117000    -10.43895000      9.88706000
 H     14.18996000    -10.74951000      8.42685000
 H     12.91799000    -12.90531000     10.23682000
 H     14.65188000    -12.40498000     10.21963000
 H     13.93882000    -13.21620000      8.77382000


