19
chgs=0 nmr=1 alpha=78.87 b3lypvdz=-422.95534750256 
     C      1.65114500      0.98538700     -1.05640400    0.0598  160.0976
     C      1.18124700     -0.00627900      0.02202300   -0.1661  121.1689
     C      1.82900300     -1.38535700     -0.16457600    0.0684  161.7731
     O      1.50897700      0.50357000      1.32788700   -0.2487  244.9646
     C     -0.31940700     -0.12628700      0.00077500    0.2494   34.5487
     C     -1.18194400     -1.18616900     -0.04619900   -0.0516   87.0874
     C     -2.50923800     -0.63615700     -0.03942800    0.0023   83.0028
     C     -2.35263300      0.71743300      0.01053400    0.1187   53.9163
     O     -1.02952400      1.04394100      0.03335400   -0.1837   44.5452
     H      2.74660500      1.11470400     -1.00334700   -0.0046   30.3737
     H      1.17305200      1.96321300     -0.90216700    0.0314   29.0722
     H      1.40127000      0.62550300     -2.06759000    0.0172   30.0900
     H      2.92584700     -1.28989100     -0.09486200    0.0020   30.3573
     H      1.50090300     -2.07168800      0.63018300    0.0284   29.4577
     H      1.58546300     -1.82568500     -1.14463800    0.0183   29.7604
     H      2.45149500      0.73001000      1.31334000    0.1303   31.8622
     H     -0.90777700     -2.23727800     -0.07870300   -0.0349   25.2024
     H     -3.44881200     -1.18257600     -0.06686900   -0.0253   25.1807
     H     -3.04617500      1.55260400      0.03698400   -0.0112   24.1188
