    9
 DF-MP2/VTZ  ENERGY=-228.98717269
 O         -1.3793228522       -0.8029944968        0.1170375145
 H         -1.1776843767        0.1486563970        0.0705432610
 H         -1.9724395383       -0.9614697893       -0.6198298052
 O         -0.0046998221        1.6001653659       -0.0811442661
 H          0.1530480386        2.1555007939        0.6850990049
 H          0.7226695302        0.9529094945       -0.0684337140
 O          1.4005961630       -0.7838128950        0.0611942600
 H          0.4832372788       -1.1091974633        0.0551869891
 H          1.8260963983       -1.2304539683       -0.6730853289
