   12
 DF-MP2/VTZ  ENERGY=-305.32791130
 O         -0.7799921113       -1.4659662205       -0.9707926205
 H         -1.2380009775       -0.8110140672       -0.4021921250
 H         -1.1973170076       -1.3743172159       -1.8296172668
 O          0.7790508615        1.4716211210        0.9629608334
 H          1.0437538599        2.2969103862        0.5519020493
 H          1.2434197714        0.7784586901        0.4472784538
 O          1.7490150766       -0.5380698670       -0.5927139194
 H          0.8860487425       -0.9436835228       -0.8225130221
 H          2.2517649068       -1.2499970543       -0.1920374108
 O         -1.7480737832        0.5324147713        0.6005455287
 H         -0.8914674435        0.9762384909        0.7774269626
 H         -2.0982017295        0.3274040755        1.4697522992
