   15
 DF-MP2/VTZ  ENERGY=-381.66252003
 O         -2.1416974531        0.7925079361       -0.1159192260
 H         -1.3333625438        1.3506200239       -0.0965779451
 H         -2.7282991940        1.2002768017        0.5237774725
 O          2.2214449066        0.5881382521        0.1190607791
 H          1.9055468687       -0.3334637989       -0.0088880285
 H          2.7388270003        0.5547545127        0.9257903727
 O         -1.4262269170       -1.8164785878        0.0995030147
 H         -1.7730640238       -2.1326832465        0.9359397271
 H         -1.7389415694       -0.8880712193        0.0331360590
 O          0.1172123053        2.2769671728       -0.0068027476
 H          0.8985696078        1.6879018325        0.0817748286
 H          0.3023223179        2.7965187771       -0.7918186451
 O          1.2636783132       -1.9222689234       -0.1529724231
 H          0.2872420730       -1.9114803062       -0.0453018192
 H          1.4068584974       -2.3596873200       -0.9945127264
