   21
 DF-MP2/VTZ  ENERGY=-534.34376774
 O         -1.0133518283       -1.5012304832       -1.4149138849
 H         -0.9849621762       -0.5499133393       -1.6384867569
 H         -1.0588675063       -1.9648940623       -2.2534949385
 O          0.8367014075        1.8764105476        0.2111222968
 H          1.6375395278        1.3913670103       -0.0764173688
 H          0.5737029030        1.4244910882        1.0280611121
 O         -1.1399497432        1.2311025805       -1.3756163232
 H         -1.2954116975        1.9234500188       -2.0211239490
 H         -0.3606988669        1.5385822282       -0.8296538023
 O         -0.2282659038        0.0705465563        2.1474524886
 H         -1.1159013227       -0.0177573748        1.7278898166
 H         -0.3873359287        0.0827646197        3.0935701236
 O          1.1752006814       -1.7183647415        0.4068144031
 H          0.4619340990       -1.7895783000       -0.2476371062
 H          0.7574721625       -1.2431320566        1.1418066732
 O          2.8148422725        0.1824121277       -0.6156636989
 H          2.3208032695       -0.5931546048       -0.2686477293
 H          3.6841887185        0.1225089123       -0.2154423880
 O         -2.4774026624       -0.1481631578        0.6769332881
 H         -2.3314741208       -0.9503082523        0.1583368361
 H         -2.2826769069        0.5394787348        0.0191412329
