11
alpha=45.57 b3lypvdz=-231.094210302437 
     C      0.78955900      1.26033000     -0.11742700
     C     -0.14688100      0.39178100      0.27096200
     C     -1.54834900      0.76949200      0.65979200
     C     -2.64080300      0.05257900     -0.11136600
     O     -2.45598100     -0.81513500     -0.93026700
     H      0.58483000      2.33458300     -0.18889100
     H     -1.73928600      0.53783800      1.72948900
     H     -1.71930200      1.85781900      0.55764100
     H     -3.68157900      0.39066100      0.14774400
     H      1.79500600      0.92492200     -0.38523800
     H      0.09618600     -0.67556900      0.31785900
