%pal nprocs 2 end
%maxcore 1000
! b3lyp TIGHTSCF
! cc-pvdz def2/J RIJCOSX
! Opt

%geom
maxiter 60
TolE 1e-4
TolRMSG 2e-3
TolMaxG 3e-3
TolRMSD 2e-2
TolMaxD 3e-2
end

*xyz 0 1
C 2.6618 -0.4165 -0.2003
C 1.6926 -1.2282 0.2395
C 0.3117 -0.8778 0.4851
C -0.2537 0.3243 0.3217
H 3.6681 -0.7962 -0.3478
H 1.9444 -2.2688 0.4416
H -0.3129 -1.697 0.8399
H 2.4953 0.6307 -0.4249
H 0.2965 1.1908 -0.0267
H -1.3075 0.4672 0.5402
*

