15
alpha=67.59 b3lypvdz=-308.44438720899 
     C      0.68923700      1.37278800     -0.32958200
     C      1.61077200     -1.42976400      0.46023300
     C      0.35919900     -1.02183400      0.20991400
     C     -0.07567200      0.39309300      0.18060400
     C     -1.44063500      0.69481400      0.75804800
     C     -2.62623200      0.15885800     -0.02475500
     O     -2.56124500     -0.53595600     -1.01110500
     H      0.36055100      2.41538800     -0.31472500
     H      1.87367500     -2.49052300      0.45881800
     H     -0.42669900     -1.76251100      0.02894800
     H     -1.54600100      0.27940100      1.78132600
     H     -1.59467400      1.78289400      0.87244700
     H     -3.61759700      0.47887100      0.39839400
     H      1.65486300      1.15266600     -0.78949700
     H      2.40935700     -0.71728500      0.68293200
