13
alpha=58.8 b3lypvdz=-195.176198364124 
     C      2.72131800     -0.46002000     -0.24754300
     C      1.71809900     -1.23380300      0.19895600
     C      0.33022400     -0.83972700      0.49527500
     C     -0.21876800      0.38226100      0.37528500
     C     -1.64708400      0.71450200      0.69839800
     H      3.71191700     -0.88311900     -0.43080900
     H      1.93917700     -2.29296000      0.37621400
     H     -0.31317500     -1.65119800      0.85629400
     H     -2.19809300     -0.16745200      1.06259300
     H     -1.71007300      1.50129900      1.47246900
     H      2.59527100      0.60750900     -0.45239400
     H      0.39719000      1.21580400      0.01404700
     H     -2.17610400      1.11030600     -0.18818400
