12
alpha=58.25 b3lypvdz=-232.108839404424 
     C      0.78025800      1.30537400     -0.13519700
     C      2.10650100      0.95813300     -0.41412300
     C      2.54003500     -0.35869100     -0.22503000
     C      1.64649300     -1.32853700      0.24138000
     C      0.32024000     -0.98129500      0.52029300
     C     -0.11323300      0.33556900      0.33142600
     H      0.44009300      2.33303300     -0.28704700
     H      2.80367100      1.71559200     -0.78043800
     H      3.57484800     -0.63149800     -0.44724100
     H      1.98660800     -2.35624500      0.39300600
     H     -0.37698600     -1.73880000      0.88640200
     H     -1.14793000      0.60846500      0.55406800
