6
alpha=21.68 b3lypvdz=-78.533099834411 
     C      0.81148200      1.28940500     -0.14390600
     C      2.07711800      0.96199500     -0.41119400
     H      0.44287400      2.30995000     -0.29010300
     H      2.79252400      1.70344300     -0.78058800
     H      0.09607700      0.54795600      0.22548900
     H      2.44572500     -0.05855000     -0.26499700
