9
alpha=33.96 b3lypvdz=-117.824411056838 
     C      0.32629100     -0.95684100      0.51188900
     C     -0.13905100      0.28700100      0.35647900
     C     -1.54137300      0.73241300      0.66992800
     H     -0.31089000     -1.76301900      0.89074400
     H     -2.15389600     -0.09778400      1.05706200
     H     -1.54005600      1.54019200      1.42434500
     H      1.35953000     -1.21309600      0.25973000
     H      0.53869700      1.05911400     -0.03159800
     H     -2.03715200      1.13792000     -0.23107900
