%pal nprocs 2 end
%maxcore 1000
! b3lyp TIGHTSCF
! cc-pvdz def2/J RIJCOSX
! Opt

%geom
maxiter 60
TolE 1e-4
TolRMSG 2e-3
TolMaxG 3e-3
TolRMSD 2e-2
TolMaxD 3e-2
end

*xyz 0 1
C 0.7369 1.1963 -0.0853
C 2.1109 0.8551 -0.3844
C 2.6868 -0.3474 -0.2669
C -0.2163 0.3665 0.3679
C -1.6145 0.7997 0.6944
C -2.6565 0.085 -0.146
O -2.4433 -0.864 -0.894
H 0.4959 2.2475 -0.2401
H 2.7214 1.6837 -0.7419
H 3.7327 -0.4807 -0.5256
H -1.8315 0.5892 1.7466
H -1.7463 1.875 0.5309
H -3.6846 0.4666 -0.0193
H 2.1526 -1.2262 0.0759
H -0.0051 -0.6885 0.525
*

