15
alpha=71.35 b3lypvdz=-271.397293498917 
     C      0.81135200      1.31468200     -0.05041100
     C      2.13640100      0.96791900     -0.33367500
     C      2.55364400     -0.36223700     -0.22577600
     C      1.63538500     -1.34000100      0.16762800
     C      0.31075800     -0.98841900      0.44929100
     C     -0.12173800      0.34344200      0.34468200
     C     -1.55057700      0.72793200      0.66604200
     H      0.49594600      2.35810700     -0.14638700
     H      2.84444900      1.73925300     -0.64768000
     H      3.58581500     -0.63764900     -0.45777600
     H      1.95238300     -2.38330200      0.25238000
     H     -0.39813300     -1.76472300      0.75203400
     H     -1.65745400      0.99939300      1.73218100
     H     -1.87591400      1.59376900      0.06858900
     H     -2.24621900     -0.10136500      0.45977700
