11
alpha=45.55 b3lypvdz=-231.094196724567 
     C      0.55073300     -0.82795100      0.79631200
     C     -0.26692700      0.01593500      0.16357800
     C     -1.59447700      0.47778900      0.68952700
     C     -2.72919400      0.37949000     -0.31240600
     O     -2.60482000      0.02104600     -1.46004800
     H      0.29532700     -1.25562100      1.77170700
     H     -1.89302200     -0.06290800      1.60671400
     H     -1.55204600      1.54543000      0.99448900
     H     -3.72908400      0.69387300      0.09179000
     H      1.50767800     -1.12478700      0.35951600
     H      0.01303300      0.41290500     -0.81777900
