15
alpha=71.12 b3lypvdz=-308.442423014814 
     C      2.73940700     -0.46978300     -0.16295000
     C      1.72459700     -1.24267500      0.25690200
     C      0.33404000     -0.83934700      0.51666700
     C     -0.20528800      0.37754600      0.32782500
     C     -1.63417000      0.72664400      0.64378900
     C     -2.71388800      0.07632400     -0.21219400
     O     -2.54496400     -0.78590700     -1.03823500
     H      3.73520300     -0.89182900     -0.31684500
     H      1.93796500     -2.30022100      0.44898600
     H     -0.31055800     -1.63038500      0.91530400
     H     -1.89939200      0.46228800      1.68845700
     H     -1.80417700      1.81719600      0.58257700
     H     -3.74222600      0.47156400      0.01337400
     H      2.61961900      0.59756300     -0.37138200
     H      0.41033300      1.18162000     -0.08847300
