7
alpha=25.19 b3lypvdz=-153.749769364454 
     O     -2.50912700     -0.79727700     -0.95363100
     C     -1.54273000      0.71340700      0.65734800
     C     -2.65657700      0.07697900     -0.13246700
     H     -1.74715300      0.61147300      1.73856300
     H     -1.51118300      1.79686300      0.44184500
     H     -3.68007000      0.48441000      0.09340500
     H     -0.57746000      0.25104400      0.40683700
