15
alpha=70.52 b3lypvdz=-308.446491638813 
     C      0.77814600      1.20986600     -0.05353000
     C      2.14671100      0.83761100     -0.44015400
     C      2.77218500     -0.30290100     -0.10764700
     C     -0.23744300      0.35327100      0.14739300
     C     -1.60485600      0.76307300      0.60584000
     C     -2.76005800      0.07824400     -0.09795300
     O     -2.65335200     -0.80456000     -0.91553900
     H      0.58833600      2.28581400      0.06135800
     H      2.69191500      1.58210600     -1.03362600
     H      3.78442100     -0.51783900     -0.45811800
     H     -1.74822600      0.53336700      1.68508400
     H     -1.75390300      1.85665200      0.52789700
     H     -3.76972000      0.45171900      0.22568400
     H      2.29391700     -1.05311200      0.52918500
     H     -0.08897300     -0.71550900     -0.03867500
