10
alpha=44.35 b3lypvdz=-155.885104277165 
     C      2.68121500     -0.42224100     -0.20136300
     C      1.70465200     -1.23277900      0.23724300
     C      0.29879300     -0.87622700      0.48563000
     C     -0.27361800      0.32782700      0.32410500
     H      3.69415300     -0.80260000     -0.35365800
     H      1.96197400     -2.27814700      0.44260600
     H     -0.33115100     -1.69879200      0.84294400
     H      2.50932600      0.63378600     -0.43057400
     H      0.28392500      1.20131400     -0.02523100
     H     -1.33296900      0.47635900      0.54659800
