%pal nprocs 2 end
%maxcore 1000
! b3lyp TIGHTSCF
! cc-pvdz def2/J RIJCOSX
! Opt

%geom
maxiter 60
TolE 1e-4
TolRMSG 2e-3
TolMaxG 3e-3
TolRMSD 2e-2
TolMaxD 3e-2
end

*xyz 0 1
C 0.8008 1.3182 -0.0642
C 2.1241 0.9691 -0.3392
C 2.5358 -0.3569 -0.2193
C 1.6227 -1.3361 0.1673
C 0.2989 -0.9884 0.442
C -0.1215 0.3431 0.3354
C -1.5333 0.7236 0.6693
H 0.4963 2.3585 -0.1525
H 2.8346 1.7332 -0.6433
H 3.5666 -0.6276 -0.4311
H 1.9418 -2.3709 0.2583
H -0.4003 -1.7618 0.7517
H -1.6114 0.9743 1.7316
H -1.8563 1.5864 0.0772
H -2.2227 -0.0979 0.4477
*

