16
chgs=0 nmr=1 alpha=59.72 b3lypvdz=-271.584219789746 
     C      1.58654700      0.88359900     -1.09213900    0.0612  158.0236
     C      1.17789300     -0.03271300      0.07599900   -0.1215  118.8666
     C      1.83678600     -1.41184300     -0.04615500    0.0621  163.6030
     O      1.56923400      0.57768900      1.31877000   -0.2572  247.3688
     C     -0.33444300     -0.08979000      0.15870800    0.0220   45.2277
     C     -1.12662200     -1.09013900     -0.23075600    0.0209   82.8748
     H      2.68417600      1.00754400     -1.12101100   -0.0005   30.3934
     H      1.13110200      1.87888600     -0.97363600    0.0164   29.9031
     H      1.26585600      0.46490200     -2.05919900    0.0183   30.2132
     H      2.93535700     -1.30614900     -0.04084200   -0.0010   30.4753
     H      1.54788800     -2.04778200      0.80397000    0.0238   29.9802
     H      1.55856600     -1.92138600     -0.98254100    0.0179   29.7234
     H      2.52015000      0.75616000      1.26327100    0.1314   31.9797
     H     -0.73265000     -2.02002100     -0.64839800    0.0060   26.2403
     H     -0.76849700      0.82328500      0.58280800   -0.0143   25.0897
     H     -2.21334200     -1.01284100     -0.14194800    0.0145   26.3141
