12
chgs=0 nmr=1 alpha=44.9 b3lypvdz=-157.109045293119 
     C      1.14422600     -0.04785400      0.01735300   -0.0119  162.6108
     C      1.83140400     -1.40416700     -0.16290500   -0.0270  180.0413
     C     -0.36291300     -0.07194900      0.02173900   -0.0829   53.0431
     C     -1.14596100     -1.15170600     -0.06240000    0.0101   82.1537
     H      2.92785500     -1.28554300     -0.16626900    0.0147   30.2856
     H      1.57393500     -2.10126600      0.65224200    0.0279   30.2309
     H      1.53925600     -1.87709000     -1.11607100    0.0276   30.2838
     H     -0.73996200     -2.16335800     -0.15361700    0.0057   26.2785
     H      1.47699700      0.64486100     -0.78026600    0.0220   29.2335
     H      1.48724900      0.41727300      0.96291100    0.0240   29.2073
     H     -0.84462800      0.91202600      0.10768700   -0.0193   25.1855
     H     -2.23576000     -1.05612700     -0.04540300    0.0092   26.2963
