9
chgs=0 nmr=1 alpha=28.09 b3lypvdz=-154.948659307479 
     C      1.21807700     -0.00854500      0.04035500    0.1113  131.8872
     C      1.83146600     -1.39005400     -0.17085600   -0.0496  169.9653
     O      1.47362600      0.51433500      1.33872700   -0.2720  285.3914
     H      2.93586000     -1.34235400     -0.13911900    0.0116   30.4504
     H      1.50076100     -2.08288800      0.62010000    0.0285   30.0715
     H      1.54150700     -1.81197700     -1.14837000    0.0151   30.2687
     H      2.43408000      0.60901700      1.42601300    0.1337   32.2321
     H      1.56018300      0.68951200     -0.75239500   -0.0003   27.6010
     H      0.11874000     -0.06414700     -0.03555500    0.0218   27.7783
