15
chgs=0 nmr=1 alpha=56.71 b3lypvdz=-196.39437186271 
     C      1.64261000      0.96147100     -1.06586300    0.0139  166.9976
     C      1.15720600     -0.02317200      0.01541400   -0.1038  156.1724
     C      1.81550500     -1.39786200     -0.14800500    0.0208  172.4117
     C     -0.35393100     -0.06781600      0.03140700   -0.0334   47.4254
     C     -1.13231400     -1.15080600     -0.05897500    0.0078   82.5646
     H      2.74028700      1.06876600     -1.04012800    0.0107   30.2414
     H      1.20404200      1.96392700     -0.92443100    0.0124   30.1546
     H      1.35689800      0.60911000     -2.07250700    0.0203   30.6420
     H      2.91423400     -1.30822100     -0.11076200    0.0113   30.3456
     H      1.51207600     -2.09303400      0.65182400    0.0210   30.0187
     H      1.54617200     -1.85486100     -1.11610900    0.0216   30.4845
     H     -0.72473900     -2.16070000     -0.15512500    0.0062   26.3297
     H      1.47553700      0.38974600      0.99496900    0.0056   29.0832
     H     -0.84380200      0.91198700      0.12011300   -0.0232   25.2548
     H     -2.22228100     -1.05883600     -0.04122300    0.0089   26.3406
