13
chgs=0 nmr=1 alpha=56.52 b3lypvdz=-344.376195707421 
     C      1.16041700      0.04382800      0.04591200    0.1825  133.4918
     O      1.57029800      0.36003700      1.37328900   -0.2591  299.8322
     C     -0.32144600     -0.08423100     -0.00065200    0.0752   38.5654
     C     -1.16021400     -1.16362300      0.01614600   -0.0303   82.3475
     C     -2.49887600     -0.64318300     -0.01480000    0.0039   82.5787
     C     -2.36856500      0.71476200     -0.05221900    0.1177   52.8322
     O     -1.05418100      1.07343200     -0.04505400   -0.1782   38.1494
     H      2.50005700      0.62815300      1.33369300    0.1369   31.7391
     H     -0.85448500     -2.20658700      0.06097100   -0.0329   25.0995
     H     -3.42799300     -1.20766300     -0.01082200   -0.0239   25.1358
     H     -3.08223400      1.53247100     -0.08987300   -0.0099   24.1050
     H      1.47696500      0.82657400     -0.67002600    0.0112   26.6969
     H      1.59175800     -0.91657200     -0.29916400    0.0069   26.7990
