12
chgs=0 nmr=1 alpha=45.81 b3lypvdz=-157.109373198221 
     C      1.66596700      0.95160300     -1.06408000   -0.0274  174.8683
     C      1.11516100      0.00844200      0.01627200    0.0141  158.4764
     C     -0.38865000     -0.04401300      0.04396600   -0.0822   51.6434
     C     -1.11970900     -1.15830900     -0.05783500    0.0154   79.3002
     H      2.76901700      0.96679100     -1.05074600    0.0147   30.1976
     H      1.31414800      1.98660600     -0.90902600    0.0195   30.3149
     H      1.34158000      0.63317100     -2.06925300    0.0249   30.4596
     H     -0.64987400     -2.14121000     -0.17295500    0.0053   26.1769
     H      1.51684800     -1.00877700     -0.13546500    0.0014   29.4044
     H      1.48085400      0.35077600      1.00471900    0.0219   29.0962
     H     -0.90462600      0.91994200      0.15633500   -0.0198   25.4509
     H     -2.21311600     -1.12742200     -0.02633300    0.0122   26.3953
