9
chgs=0 nmr=1 alpha=33.95 b3lypvdz=-117.824431945624 
     C      1.13777900     -0.04562600      0.01932300    0.0207  169.8705
     C     -0.36461700     -0.04924900      0.00055200   -0.1222   58.4306
     C     -1.12919100     -1.14404600     -0.04263600    0.0148   78.1640
     H     -0.69001200     -2.14749300     -0.06880800    0.0050   26.1646
     H      1.54444800      0.51888700     -0.83910100    0.0329   29.5483
     H      1.54699100     -1.06819200     -0.01711700    0.0172   29.7474
     H      1.52151500      0.44645000      0.93173900    0.0333   29.5353
     H     -0.85226800      0.93472000      0.02724200   -0.0146   25.4203
     H     -2.22134400     -1.07455200     -0.05339500    0.0130   26.3513
