15
chgs=0 nmr=1 alpha=64.31 b3lypvdz=-308.482708616968 
     C      1.69438600      0.90373000     -1.11312600   -0.0164  174.8492
     C      1.15311100      0.06678400      0.05546600    0.0228  166.1440
     C     -0.33162200     -0.08096300      0.03923700    0.0774   36.4757
     C     -1.17049100     -1.14176300     -0.16114400   -0.0372   87.0129
     C     -2.51243800     -0.62766300     -0.08557300    0.0042   82.8648
     C     -2.38791200      0.70803100      0.15144100    0.1121   54.2799
     O     -1.06944400      1.06003000      0.23103000   -0.1907   44.3651
     H      2.78386800      1.04242100     -1.02529500    0.0135   30.2209
     H      1.22061400      1.89749800     -1.12655800    0.0309   29.9638
     H      1.48341300      0.41671800     -2.07913900    0.0232   30.4106
     H     -0.86548600     -2.16837200     -0.35029000   -0.0386   25.4345
     H     -3.43772500     -1.18738800     -0.19671600   -0.0263   25.2336
     H     -3.10136000      1.51442800      0.29197400   -0.0130   24.1873
     H      1.58831700     -0.94523100      0.03736800    0.0130   28.9973
     H      1.46586900      0.52773900      1.00962500    0.0254   28.7341
