13
chgs=0 nmr=1 alpha=48.34 b3lypvdz=-232.295068629364 
     C      1.15210400     -0.08259100      0.06840800    0.0535  122.6161
     C      1.82187300     -1.44799700     -0.06805900    0.0143  169.7820
     O      1.57025800      0.58207100      1.26505000   -0.2602  270.6290
     C     -0.35551200     -0.11242200      0.13445700   -0.0273   49.0527
     C     -1.15532200     -1.13175500     -0.18562400    0.0172   81.9896
     H      2.91818600     -1.33098400     -0.11145000    0.0042   30.4181
     H      1.57419700     -2.08330900      0.79710000    0.0294   30.2177
     H      1.50765600     -1.96365300     -0.98990400    0.0224   29.8970
     H      2.51833700      0.76107500      1.18434800    0.1339   31.6035
     H     -0.76776800     -2.09331900     -0.53153500    0.0068   26.2991
     H      1.42864300      0.53948700     -0.81177500    0.0012   26.9293
     H     -0.78577500      0.83172200      0.48838500   -0.0107   25.0601
     H     -2.24217900     -1.03882500     -0.11230000    0.0154   26.2747
