%nproc=6
# opt(tight) b3lyp/sto-3g

c02h04

0 1
 C      1.35053000      1.02396000     -0.57561000
 C      2.53232000      0.66733000     -0.07975000
 H      0.43445000      0.75975000     -0.05634000
 H      1.29613000      1.58243000     -1.50442000
 H      3.44577000      0.93350000     -0.60208000
 H      2.59151000      0.10871000      0.84891000


