%nproc=6
# opt(tight) b3lyp/sto-3g

c04h10

0 1
 C      1.35253000      1.01837000     -0.56644000
 C      2.53586000      0.65804000     -0.06452000
 C      2.63024000     -0.10214000      1.19803000
 C      3.81372000     -0.46233000      1.69970000
 H      0.42587000      0.76291000     -0.06089000
 H      1.30518000      1.57679000     -1.49576000
 H      3.44061000      0.93269000     -0.60028000
 H      1.72557000     -0.37687000      1.73392000
 H      4.74018000     -0.20669000      1.19386000
 H      3.86150000     -1.02076000      2.62899000


