%nproc=6
# opt(tight) b3lyp/sto-3g

c06h08

0 1
 C      1.35732000      1.01576000     -0.56248000
 C      2.53842000      0.65326000     -0.05675000
 C      2.62783000     -0.10716000      1.20662000
 C      3.81510000     -0.46880000      1.71039000
 C      3.90454000     -1.22922000      2.97376000
 C      5.08567000     -1.59169000      3.47946000
 H      0.42853000      0.76220000     -0.05992000
 H      1.31393000      1.57412000     -1.49203000
 H      3.44495000      0.92645000     -0.59022000
 H      1.71356000     -0.37486000      1.73157000
 H      4.72937000     -0.20109000      1.18543000
 H      2.99803000     -1.50242000      3.50725000
 H      6.01443000     -1.33810000      2.97687000
 H      5.12910000     -2.15005000      4.40901000


