%nproc=6
# opt(tight) b3lyp/sto-3g

c07h16

0 1
 C      0.37365265     -1.42729216     -2.26429243
 C      0.81021619     -2.78849220     -1.64983016
 C      2.08626265     -2.65654531     -0.76071749
 C      2.52398546     -4.02199712     -0.14448291
 C      3.79994135     -3.88947268      0.74443710
 C      4.23816361     -5.25477142      1.36099730
 C      5.51023313     -5.12286857      2.24725794
 H      0.14803366     -0.69753551     -1.47159431
 H     -0.52707783     -1.55307602     -2.88469324
 H      1.17338538     -1.01191175     -2.89651523
 H     -0.01574079     -3.19726148     -1.04179707
 H      1.00606399     -3.51055030     -2.46178905
 H      1.89098102     -1.93503387      0.05188558
 H      2.91289256     -2.24835547     -1.36825475
 H      2.71899244     -4.74330391     -0.95735502
 H      1.69705682     -4.42997487      0.46281887
 H      3.60523480     -3.16837496      1.55754526
 H      4.62714629     -3.48169657      0.13740490
 H      4.43210370     -5.97545701      0.54736283
 H      3.41029890     -5.66216816      1.96735480
 H      6.35750528     -4.74169119      1.65678974
 H      5.33215366     -4.42731457      3.08171066
 H      5.79351505     -6.10050487      2.66679671


