%nproc=6
# opt(tight) b3lyp/sto-3g

c08h10

0 1
 C      1.31207112      1.05374530     -0.62221415
 C      2.48588215      0.67059466     -0.08128385
 C      2.60644617     -0.08999756      1.17975866
 C      3.79593289     -0.47482944      1.72217060
 C      3.91937044     -1.23149936      2.97641390
 C      5.10885716     -1.61633129      3.51882581
 C      5.22942119     -2.37692353      4.77986831
 C      6.40323221     -2.76007425      5.32079856
 H      0.35331284      0.81683211     -0.14498920
 H      1.26475518      1.61780921     -1.56098509
 H      3.42977993      0.92498107     -0.58645447
 H      1.66814732     -0.34911646      1.69236478
 H      4.73273366     -0.21428949      1.20731637
 H      2.98256968     -1.49203930      3.49126814
 H      6.04715602     -1.35721237      3.00621970
 H      4.28552340     -2.63130995      5.28503892
 H      6.45054815     -3.32413826      6.25956944
 H      7.36199049     -2.52316114      4.84357355


