%nproc=6
# opt(tight) b3lyp/sto-3g

c10h12

0 1
 C      1.12070483     -0.27541504     -0.28739705
 C      1.72717550      0.54399534     -1.17001701
 C      3.18889150      0.73863019     -1.24820191
 C      3.79683287      1.56915618     -2.14346899
 C      5.24833411      1.76540326     -2.22452840
 C      5.85603790      2.59793658     -3.12212951
 C      7.30753908      2.79418393     -3.20318936
 C      7.91547963      3.62471021     -4.09845674
 C      9.37719543      3.81934612     -4.17664254
 C      9.98366471      4.63875696     -5.05926303
 H      1.69317724     -0.86026904      0.44287648
 H      0.03106396     -0.39241743     -0.26144379
 H      1.12227696      1.11643411     -1.88923613
 H      3.80268575      0.17074161     -0.53333244
 H      3.17974743      2.13552758     -2.85692042
 H      5.86642698      1.19960073     -1.51163113
 H      5.23794488      3.16373905     -3.83502671
 H      7.92462502      2.22781285     -2.48973812
 H      7.30168464      4.19259848     -4.81332581
 H      9.98209497      3.24690777     -3.45742393
 H      9.41119113      5.22361037     -5.78953612
 H     11.07330547      4.75576017     -5.08521735


