%nproc=6
# opt(tight) b3lyp/sto-3g

c12h26

0 1
 C      0.06434206     -1.14718412     -2.52266743
 C      0.48905320     -2.51852409     -1.92258609
 C      1.76658888     -2.40730958     -1.03278357
 C      2.19222403     -3.78307899     -0.43108476
 C      3.46976806     -3.67148852      0.45864155
 C      3.89545710     -5.04735697      1.06039859
 C      5.17303274     -4.93569813      1.95012891
 C      5.59871455     -6.31157161      2.55187970
 C      6.87626100     -6.20000243      3.44160512
 C      7.30187677     -7.57578599      4.04328568
 C      8.57941471     -7.46460869      4.93308953
 C      9.00409784     -8.83596856      5.53314579
 H     -0.83773795     -1.25855740     -3.14386598
 H      0.86743928     -0.73237399     -3.15098484
 H     -0.15447397     -0.42370986     -1.72234255
 H      0.67806300     -3.23378318     -2.74214554
 H     -0.34030710     -2.92619117     -1.31846138
 H      1.57815123     -1.69262510     -0.21256625
 H      2.59663528     -2.00025068     -1.63640998
 H      2.38033056     -4.49750639     -1.25161440
 H      1.36182837     -4.18987578      0.17225502
 H      3.28162753     -2.95705274      1.27914637
 H      4.30013041     -3.26468347     -0.14472499
 H      4.08359891     -5.76178980      0.23989121
 H      3.06509435     -5.45415817      1.66376799
 H      4.98489268     -4.22126656      2.77063790
 H      6.00339664     -4.52889811      1.34676052
 H      5.78684869     -7.02600377      1.73137043
 H      4.76834897     -6.71837369      3.15524407
 H      6.68816352     -5.48558167      4.26214259
 H      7.70666170     -5.79320971      2.83826960
 H      7.49030372     -8.29046150      3.22305826
 H      6.47182303     -7.98284037      4.64690529
 H      8.39041687     -6.74936105      5.75266149
 H      9.40878355     -7.05694612      4.32897329
 H      9.22290125     -9.55943137      4.73280711
 H      8.20099023     -9.25077460      6.16145258
 H      9.90617829     -8.72462606      6.15434918


