%nproc=6
# opt(tight) b3lyp/sto-3g

c12h14

0 1
 C      1.09939108     -0.28043342     -0.28371574
 C      1.70996035      0.53794128     -1.16474795
 C      3.17186502      0.72939550     -1.23926064
 C      3.78400150      1.55919571     -2.13328724
 C      5.23477511      1.75243181     -2.21096129
 C      5.84669579      2.58496715     -3.10815753
 C      7.29519736      2.77857188     -3.18648256
 C      7.90711802      3.61110725     -4.08367877
 C      9.35789162      3.80434343     -4.16135280
 C      9.97002805      4.63414371     -5.05537937
 C     11.43193270      4.82559808     -5.12989200
 C     12.04250191      5.64397285     -6.01092417
 H      1.66877351     -0.86667723      0.44785530
 H      0.00943480     -0.39503268     -0.26055466
 H      1.10799039      1.11178955     -1.88530302
 H      3.78290734      0.16016205     -0.52311209
 H      3.16936554      2.12678023     -2.84789635
 H      5.85078270      1.18560913     -1.49709218
 H      5.22996947      3.15145732     -3.82171560
 H      7.91192368      2.21208174     -2.47292446
 H      7.29111040      4.17792996     -4.79754784
 H      9.97252760      3.23675893     -3.44674370
 H      9.35898569      5.20337719     -5.77152786
 H     12.03390271      4.25174979     -4.40933698
 H     13.13245820      5.75857216     -6.03408529
 H     11.47311945      6.23021663     -6.74249522


