%nproc=6
# opt(tight) b3lyp/sto-3g

c14h30

0 1
 C      0.04151217     -1.12992323     -2.53482343
 C      0.46702616     -2.50186602     -1.93669454
 C      1.74516218     -2.39132698     -1.04766145
 C      2.17165823     -3.76766497     -0.44789176
 C      3.44980377     -3.65668531      0.44105270
 C      3.87641103     -5.03309535      1.04091295
 C      5.15459277     -4.92198336      1.92984949
 C      5.58125298     -6.29836927      2.52973690
 C      6.85943748     -6.18726091      3.41866991
 C      7.28604560     -7.56367493      4.01852047
 C      8.56419852     -7.45270537      4.90745558
 C      8.99069602     -8.82905056      5.50720776
 C     10.26884030     -8.71852573      6.39623075
 C     10.69435620    -10.09047793      6.99433678
 H     -0.86097017     -1.24077886     -3.15552555
 H      0.84406268     -0.71413510     -3.16319435
 H     -0.17693238     -0.40747938     -1.73346584
 H      0.65567713     -3.21609554     -2.75723363
 H     -0.36177864     -2.91050387     -1.33246356
 H      1.55707874     -1.67767093     -0.22646893
 H      2.57464834     -1.98329413     -1.65139925
 H      2.35942174     -4.48106782     -1.26938990
 H      1.34183148     -4.17543979      0.15556936
 H      3.26199636     -2.94326223      1.26251364
 H      4.27958382     -3.24888821     -0.16244429
 H      4.06422870     -5.74651876      0.21945406
 H      3.04663827     -5.44089203      1.64442131
 H      4.96676467     -4.20854887      2.75129630
 H      5.98435120     -4.51417323      1.32633090
 H      5.76907909     -7.01180290      1.70828899
 H      4.75149528     -6.70617956      3.13325654
 H      6.67162377     -5.47384062      4.24013251
 H      7.68920842     -5.77946283      2.81516012
 H      7.47384572     -8.27709336      3.19705393
 H      6.45626856     -7.97147375      4.62202056
 H      8.37644359     -6.73930922      5.72896155
 H      9.39402143     -7.04492753      4.30399130
 H      9.17877073     -9.54269839      4.68600614
 H      8.16121356     -9.23708745      6.11094797
 H     10.08019772     -8.00430712      7.21678124
 H     11.09764079     -8.30988126      5.79199832
 H      9.89181094    -10.50627150      7.62271083
 H     11.59684571     -9.97963401      7.61503057
 H     10.91278933    -10.81291182      6.19296711


