%nproc=6
# opt(tight) b3lyp/sto-3g

c14h16

0 1
 C      1.10474725     -0.34790885     -0.20549422
 C      1.69273265      0.47680060     -1.09607268
 C      3.15075481      0.68609058     -1.19151273
 C      3.73998945      1.52238346     -2.09529913
 C      5.18637181      1.73339127     -2.19387741
 C      5.77528752      2.57274900     -3.10122322
 C      7.21843619      2.78426351     -3.20070725
 C      7.80731955      3.62435692     -4.10890305
 C      9.25046797      3.83587234     -4.20838833
 C      9.83938109      4.67523077     -5.11573518
 C     11.28576273      4.88624145     -5.21431670
 C     11.87499266      5.72253564     -6.11810499
 C     13.33301393      5.93182984     -6.21354994
 C     13.92099338      6.75654098     -7.10413088
 H      0.01671735     -0.47583370     -0.16679508
 H      1.69159859     -0.92615016      0.51860191
 H      1.07355517      1.04223653     -1.80865509
 H      3.77896554      0.12541901     -0.48351305
 H      3.10808595      2.08129421     -2.80164045
 H      5.81979812      1.17535253     -1.48838777
 H      5.14084302      3.13029633     -3.80624878
 H      7.85324829      2.22692158     -2.49588146
 H      7.17250704      4.18169862     -4.81372869
 H      9.88491400      3.27832585     -3.50336351
 H      9.20595252      5.23326841     -5.82122367
 H     11.91766946      4.32733237     -4.50797699
 H     11.24677822      6.28320534     -6.82610291
 H     13.95219577      5.36639604     -5.50096960
 H     13.33413728      7.33478007     -7.82822495
 H     15.00902271      6.88446943     -7.14283422


