%nproc=6
# opt(tight) b3lyp/sto-3g

c16h34

0 1
 C     -0.03017782     -1.05432741     -2.58991571
 C      0.39095463     -2.42855591     -1.99393804
 C      1.67162910     -2.32412801     -1.10781995
 C      2.09376612     -3.70273407     -0.51018316
 C      3.37445345     -3.59781578      0.37583830
 C      3.79674133     -4.97647093      0.97359303
 C      5.07746560     -4.87136641      1.85960027
 C      5.49985005     -6.24997115      2.45741335
 C      6.78057870     -6.14481395      3.34341209
 C      7.20295990     -7.52342014      3.94122415
 C      8.48368397     -7.41832261      4.82723251
 C      8.90596263     -8.79698187      5.42498428
 C     10.18664936     -8.69207647      6.31100815
 C     10.60877271    -10.07068881      6.90864006
 C     11.88944563     -9.96627794      7.79476246
 C     12.31056211    -11.34051444      8.39073301
 H     -0.93457161     -1.16084323     -3.20859178
 H      0.77264675     -0.64139047     -3.21981542
 H     -0.24369088     -0.33165164     -1.78743844
 H      0.57468110     -3.14288452     -2.81550762
 H     -0.43813520     -2.83422020     -1.38809654
 H      1.48846450     -1.61036993     -0.28560531
 H      2.50139336     -1.91906830     -1.71317497
 H      2.27661967     -4.41624164     -1.33269680
 H      1.26366861     -4.10753667      0.09490372
 H      3.19154926     -2.88427927      1.19830605
 H      4.20449701     -3.19298347     -0.22928979
 H      3.97966495     -5.69001166      0.15113256
 H      2.96671048     -5.38130525      1.57873814
 H      4.89452319     -4.15780436      2.68203797
 H      5.90747342     -4.46651007      1.25443843
 H      5.68279825     -6.96353532      1.63497869
 H      4.66984671     -6.65482892      3.06258050
 H      6.59763114     -5.43124982      4.16584693
 H      7.61058269     -5.73995702      2.73824525
 H      7.38590040     -8.23698161      3.11878555
 H      6.37295051     -7.92827468      4.54638504
 H      8.30076340     -6.70478257      5.64969426
 H      9.31371755     -7.01349153      4.22208897
 H      9.08886297     -9.51051716      4.60251463
 H      8.07591545     -9.20181026      6.03011002
 H     10.00380040     -7.97857044      7.13352415
 H     11.01675131     -8.28727862      5.70592419
 H     10.79193292    -10.78444474      6.08642257
 H      9.77900306    -10.47574368      7.51399093
 H     11.70572373     -9.25195228      8.61633562
 H     12.71854125     -9.56061835      7.18892575
 H     11.50772933    -11.75344894      9.02062388
 H     13.21495245    -11.23401141      9.00941632
 H     12.52407438    -12.06318606      7.58825180


