%nproc=6
# opt(tight) b3lyp/sto-3g

c18h38

0 1
 C     -0.09166957     -0.98361326     -2.64215934
 C      0.32367538     -2.35929435     -2.04547359
 C      1.60770784     -2.26069899     -1.16355442
 C      2.02406294     -3.64074687     -0.56519154
 C      3.30811268     -3.54162749      0.31662374
 C      3.72465008     -4.92170818      0.91512179
 C      5.00873979     -4.82235931      1.79691475
 C      5.42541449     -6.20236830      2.39549329
 C      6.70951136     -6.10291422      3.27726863
 C      7.12623051     -7.48289920      3.87587293
 C      8.41032692     -7.38344756      4.75764923
 C      8.82699783     -8.76345881      5.35622514
 C     10.11108628     -8.66411705      6.23802079
 C     10.52761651    -10.04420209      6.83651370
 C     11.81166450     -9.94509392      7.71833290
 C     12.22800972    -11.32514792      8.31668840
 C     13.51204030    -11.22656725      9.19861206
 C     13.92737310    -12.60225584      9.79528897
 H     -0.99859231     -1.08597982     -3.25782691
 H      0.71145513     -0.57608663     -3.27519246
 H     -0.29861061     -0.25858337     -1.84008375
 H      0.50082610     -3.07584569     -2.86655173
 H     -0.50573822     -2.75944171     -1.43641473
 H      1.43111443     -1.54471652     -0.34183642
 H      2.43778972     -1.86115550     -1.77213117
 H      2.20035096     -4.35647992     -1.38720464
 H      1.19365294     -4.04003382      0.04312252
 H      3.13176946     -2.82585999      1.13858556
 H      4.13846300     -3.14230437     -0.29173528
 H      3.90101989     -5.63748286      0.09317129
 H      2.89431805     -5.32103613      1.52350347
 H      4.83234489     -4.10655632      2.61883519
 H      5.83904107     -4.42300101      1.18851109
 H      5.60182334     -6.91817658      1.57358038
 H      4.59512377     -6.60173121      3.00390846
 H      6.53309496     -5.38709720      4.09917237
 H      7.53979275     -5.70354175      2.66884694
 H      7.30264692     -8.19871583      3.05396887
 H      6.29594864     -7.88227157      4.48429400
 H      8.23391859     -6.66764040      5.57956325
 H      9.24061883     -6.98408498      4.14923545
 H      9.00339216     -9.47925996      4.53430298
 H      7.99669446     -9.16281659      5.96462630
 H      9.93471750     -7.94834494      7.05997376
 H     10.94142097     -8.26478979      5.62964229
 H     10.70395848    -10.75996642      6.01454886
 H      9.69726284    -10.44352430      7.44486873
 H     11.63537813     -9.22936469      8.54034968
 H     12.64207828     -9.54580795      7.11002337
 H     12.40460099    -12.04112617      7.49496628
 H     11.39792360    -11.72469014      8.92526020
 H     13.33489217    -10.51002047     10.01969474
 H     14.34145855    -10.82642147      8.58955849
 H     13.12424370    -13.00978043     10.42831746
 H     14.83429542    -12.49990130     10.41095915
 H     14.13430978    -13.32728160      8.99320853


