12
chgs=0 nmr=1 alpha=39.39 b3lypvdz=-194.239740395774 
     C      1.65252900      0.98946800     -1.05684200    0.0067  164.3818
     C      1.21547400     -0.00340300      0.02228100    0.0379  125.5861
     C      1.83339100     -1.39130100     -0.16277000    0.0074  164.3924
     O      1.47975700      0.50701300      1.32970700   -0.2677  261.0772
     H      2.75036800      1.12522100     -1.04178400    0.0037   30.6897
     H      1.19055600      1.97406800     -0.88011900    0.0221   29.9140
     H      1.36690900      0.64523100     -2.06556500    0.0139   30.1881
     H      2.93716200     -1.33949700     -0.10268500    0.0037   30.6905
     H      1.48771800     -2.07390900      0.62985900    0.0221   29.9095
     H      1.56556400     -1.82731200     -1.14019700    0.0136   30.1982
     H      2.44107900      0.61201500      1.40335900    0.1308   32.5549
     H      0.11589200     -0.09889600     -0.01184300    0.0058   27.5873
