9
chgs=0 nmr=1 alpha=39.31 b3lypvdz=-229.904104065053 
     C     -0.32798300     -0.12379300      0.00026800    0.1219   53.1782
     C     -1.17969500     -1.18801500     -0.04446200   -0.0147   83.5707
     C     -2.50742200     -0.63362800     -0.04020700   -0.0144   83.5578
     C     -2.34944000      0.72051100      0.01012000    0.1221   53.1964
     O     -1.02506000      1.04812600      0.03843200   -0.1650   42.6339
     H     -0.89680700     -2.23805200     -0.07986800   -0.0227   25.0630
     H     -3.45108400     -1.17365400     -0.07096700   -0.0227   25.0664
     H     -3.04325900      1.55561600      0.03275900   -0.0023   24.0908
     H      0.75444900     -0.03091100      0.01392600   -0.0022   24.0864
