10
chgs=0 nmr=1 alpha=37.36 b3lypvdz=-193.004563117829 
     C      1.13165800     -0.06220400      0.09851400    0.1691  124.3682
     O      1.55224900      0.52590000      1.32414700   -0.2672  304.1025
     C     -0.36836800     -0.05798000      0.06951600   -0.0822   54.3249
     C     -1.12199800     -1.14766700     -0.09038200    0.0212   77.3130
     H      2.50981600      0.65859300      1.27633100    0.1377   31.8444
     H     -0.66989200     -2.13880000     -0.20065900    0.0090   26.0781
     H      1.51320100      0.51938700     -0.76733600    0.0085   26.8931
     H      1.50413800     -1.10100500     -0.01462700   -0.0051   27.3068
     H     -0.83591200      0.92546200      0.20011400   -0.0095   25.2136
     H     -2.21369400     -1.09478700     -0.12071900    0.0184   26.2597
