11
chgs=0 nmr=1 alpha=36.22 b3lypvdz=-119.049797433993 
     C      1.64342400      0.99536200     -1.05521000   -0.0230  173.0720
     C      1.19606500     -0.00654400      0.01426500   -0.0622  169.6562
     C      1.82552500     -1.39396200     -0.15583300   -0.0231  173.0921
     H      2.73610000      1.15093700     -1.02536400    0.0164   30.4487
     H      1.15972900      1.97619700     -0.91200900    0.0130   30.1597
     H      1.38312400      0.63800400     -2.06758100    0.0163   30.4659
     H      2.92602200     -1.34775900     -0.07282600    0.0167   30.4357
     H      1.46099300     -2.09745100      0.61118700    0.0130   30.1657
     H      1.58084400     -1.82115400     -1.14454900    0.0162   30.4751
     H      1.44856000      0.39036800      1.01487300    0.0083   29.9297
     H      0.09481300     -0.09999700     -0.01485300    0.0084   29.9339
