17
chgs=0 nmr=1 alpha=62.62 b3lypvdz=-346.781318823988 
     C      1.58215200      0.95277600     -1.08098800    0.0553  161.0259
     C      1.15329500     -0.01543600      0.03549000   -0.1160  118.0301
     C      1.81643600     -1.38588500     -0.13956700    0.0715  161.8429
     O      1.52001100      0.51964100      1.31703600   -0.2481  250.8120
     C     -0.37149300     -0.09677000      0.07688300    0.0767   28.4351
     C     -1.10389600     -1.21069200     -0.06519100   -0.0290  113.4934
     O     -0.90664700      1.14604300      0.26317400   -0.1749  208.5611
     H      2.68073300      1.06251300     -1.08300900   -0.0029   30.6246
     H      1.12097400      1.93718600     -0.92306800    0.0317   29.2289
     H      1.27997300      0.57584500     -2.07155500    0.0163   30.1650
     H      2.91207900     -1.26277600     -0.11121700    0.0003   30.5756
     H      1.53067300     -2.05549600      0.68459600    0.0273   29.7639
     H      1.55083600     -1.85645700     -1.09897800    0.0173   29.9451
     H      2.43734800      0.82237100      1.24541100    0.1314   32.1290
     H     -0.64213900     -2.18460100     -0.20534300    0.0119   27.4716
     H     -2.19701200     -1.17003700     -0.03792400   -0.0112   27.7538
     H     -1.87132400      1.06317600      0.30344900    0.1423   28.0339
