11
chgs=0 nmr=1 alpha=40.49 b3lypvdz=-268.203001729832 
     C      1.09413400      0.00497200      0.05539500    0.1890  126.2060
     O      1.53432900      0.43076500      1.34364200   -0.2625  305.8728
     C     -0.40423300     -0.08693400      0.06676100   -0.0329   33.3602
     C     -1.08313200     -1.23986000     -0.02702900   -0.0260  109.3746
     O     -0.96594300      1.15145000      0.17884200   -0.1775  208.7494
     H      2.41101100      0.82475400      1.23658600    0.1392   31.8232
     H     -0.55275900     -2.19003000     -0.08936900    0.0156   27.4365
     H      1.38966200      0.73364200     -0.72505400    0.0113   27.1754
     H      1.51277400     -0.98196900     -0.21973500    0.0038   27.3826
     H     -2.17779200     -1.26828500     -0.03309300   -0.0042   27.6703
     H     -1.92755200      1.04669500      0.24375400    0.1442   27.9899
