5
chgs=0 nmr=1 alpha=13.43 b3lypvdz=-40.480454391869 
     C      1.65162000      0.98540800     -1.05617100   -0.1266  196.3001
     H      2.74353800      1.10557100     -0.98743500    0.0318   31.0179
     H      1.16337000      1.95747800     -0.89052900    0.0316   31.0282
     H      1.38556100      0.60776200     -2.05504000    0.0316   31.0245
     H      1.31141200      0.27088100     -0.29292400    0.0315   31.0471
