12
chgs=0 nmr=1 alpha=52.39 b3lypvdz=-269.197690272605 
     C      1.16655300     -0.00760900      0.02080000    0.0513  177.5529
     C     -0.31766900     -0.12224900      0.00484300    0.0240   41.9908
     C     -1.17817700     -1.18312900     -0.03906100   -0.0390   86.2761
     C     -2.50863800     -0.63497700     -0.03892800    0.0057   82.7312
     C     -2.35613200      0.71823500      0.00680300    0.1103   54.2457
     O     -1.02910900      1.04793300      0.03718800   -0.1881   40.7782
     H     -0.89372500     -2.23318900     -0.07058100   -0.0385   25.4531
     H     -3.44976100     -1.17933800     -0.07066700   -0.0263   25.2321
     H     -3.05113900      1.55223700      0.02375800   -0.0127   24.2048
     H      1.53753300      0.57987000     -0.83633500    0.0415   29.1236
     H      1.62084600     -1.00769800     -0.02554100    0.0299   29.3626
     H      1.52581900      0.49291400      0.93662100    0.0418   29.1100
