16
chgs=0 nmr=1 alpha=59.57 b3lypvdz=-271.595602198187 
     C      1.59101000      0.93160600     -1.11611700    0.0230  168.9361
     C      1.13331500     -0.02249100      0.00403400   -0.0915  155.5785
     C      1.82328400     -1.38479100     -0.09749000    0.0247  171.3445
     C     -0.37827200     -0.10833700      0.02993300    0.0079   27.1994
     C     -1.12387600     -1.20369400     -0.18160700   -0.0311  115.4406
     O     -0.91205700      1.12689900      0.29432900   -0.1883  206.3489
     H      2.68215100      1.08171200     -1.07782200    0.0101   30.4156
     H      1.09992500      1.91053400     -1.02058100    0.0253   29.6356
     H      1.33602200      0.51575600     -2.10648300    0.0149   30.7002
     H      2.91633800     -1.26441000     -0.02399400    0.0135   30.4296
     H      1.50312300     -2.06493000      0.70727900    0.0213   30.1662
     H      1.60539100     -1.87238900     -1.06324600    0.0237   30.4009
     H     -0.66866500     -2.16817100     -0.39481700    0.0097   27.7213
     H      1.42029700      0.44449000      0.96628200    0.0078   29.2189
     H     -2.21689700     -1.15741200     -0.15132300   -0.0141   27.8146
     H     -1.87858900      1.05362800      0.28922400    0.1430   28.0120
