7
chgs=0 nmr=1 alpha=25.23 b3lypvdz=-153.731956769594 
     O     -1.00587200      1.15739000      0.04343900   -0.1739  210.7584
     C     -2.57828800     -0.67696000     -0.04080300   -0.0706  110.6921
     C     -2.25469000      0.61992400      0.00866900    0.0605   45.8298
     H     -3.62484500     -0.98192800     -0.06268600    0.0218   27.5854
     H     -3.00626700      1.41553600      0.02821200    0.0143   25.1376
     H     -0.35967700      0.43321900      0.01109800    0.1465   28.2695
     H     -1.81626100     -1.46338100     -0.06102900    0.0013   27.4944
