6
chgs=0 nmr=1 alpha=16.54 b3lypvdz=-115.656631402431 
     C      1.20514600      0.00240900      0.03827100    0.0936  141.3207
     O      1.50148000      0.50293900      1.33244300   -0.2786  323.5229
     H      2.45910300      0.63827000      1.37595800    0.1383   32.4584
     H      1.48371500      0.70555200     -0.77270200    0.0072   27.8236
     H      1.68772500     -0.97461900     -0.16870000    0.0072   27.8168
     H      0.11403000     -0.14425000     -0.00126900    0.0323   27.9377
